<routes>

<vType id="type1" accel="0.45" decel="1.636" maxSpeed="75" length="4" width="1.56" minGap="0.85" sigma="0.065" />
<vType id="type2" accel="0.77" decel="1.894" maxSpeed="75" length="3.2" width="1.56" minGap="0.85" sigma="0.043" />
<vType id="type3" accel="0.69" decel="1.765" maxSpeed="75" length="4.2" width="1.62" minGap="0.85" sigma="0.076" />
<vType id="type4" accel="0.41" decel="1.55" maxSpeed="75" length="3.2" width="1.59" minGap="0.85" sigma="0.098" />
<vType id="type5" accel="0.61" decel="1.636" maxSpeed="75" length="4" width="1.77" minGap="0.85" sigma="0.032" />
<vType id="type6" accel="0.49" decel="1.937" maxSpeed="75" length="4.6" width="1.74" minGap="0.85" sigma="0.021" />
<vType id="type7" accel="0.65" decel="1.937" maxSpeed="75" length="3.6" width="1.71" minGap="0.85" sigma="0.032" />
<vType id="type8" accel="0.57" decel="1.679" maxSpeed="75" length="4.6" width="1.62" minGap="0.85" sigma="0.065" />
<vType id="type9" accel="0.77" decel="1.765" maxSpeed="75" length="4.2" width="1.59" minGap="0.85" sigma="0.109" />
<vType id="type10" accel="0.53" decel="1.894" maxSpeed="75" length="3.8" width="1.77" minGap="0.85" sigma="0.043" />
<vType id="type11" accel="0.73" decel="1.593" maxSpeed="75" length="3.4" width="1.68" minGap="0.85" sigma="0.043" />
<vType id="type12" accel="0.49" decel="1.722" maxSpeed="75" length="4" width="1.62" minGap="0.85" sigma="0.098" />

<route id="route1" color="1,1,0" edges="1003008003007 1003007003006 1003006003005 1003005003004 1003004004004 " />
<route id="route2" color="1,1,0" edges="1004001004002 1004002004003 1004003004004 1004004003004 1003004003005 1003005003006 1003006003007 1003007002007 " />
<route id="route3" color="1,1,0" edges="1001004002004 1002004002005 1002005003005 1003005003006 1003006004006 1004006004007 1004007004008 " />
<route id="route4" color="1,1,0" edges="1008005007005 1007005006005 1006005005005 1005005005004 1005004005003 " />
<route id="route5" color="1,1,0" edges="1007003007004 1007004007005 1007005007006 1007006006006 1006006006007 1006007005007 1005007005008 " />
<route id="route6" color="1,1,0" edges="1006002005002 1005002005003 1005003004003 1004003004004 1004004003004 1003004003005 1003005002005 " />
<route id="route7" color="1,1,0" edges="1001003001004 1001004001005 1001005001006 1001006001007 1001007002007 1002007002008 1002008003008 " />
<route id="route8" color="1,1,0" edges="1003007003006 1003006003005 1003005002005 1002005002004 1002004002003 " />
<route id="route9" color="1,1,0" edges="1003003004003 1004003005003 1005003005002 1005002006002 1006002007002 " />
<route id="route10" color="1,1,0" edges="1007001006001 1006001006002 1006002005002 1005002005003 1005003004003 1004003003003 1003003002003 " />
<route id="route11" color="1,1,0" edges="1007001008001 1008001008002 1008002008003 1008003008004 1008004008005 " />
<route id="route12" color="1,1,0" edges="1004001004002 1004002004003 1004003004004 1004004005004 1005004005005 1005005006005 1006005006006 1006006006007 1006007007007 1007007007008 " />
<route id="route13" color="1,1,0" edges="1003001003002 1003002003003 1003003003004 1003004003005 1003005003006 1003006003007 1003007003008 " />
<route id="route14" color="1,1,0" edges="1001005002005 1002005003005 1003005004005 1004005005005 1005005006005 " />
<route id="route15" color="1,1,0" edges="1006007006006 1006006007006 1007006007005 1007005007004 1007004007003 1007003007002 1007002007001 " />
<route id="route16" color="1,1,0" edges="1004002004003 1004003004004 1004004003004 1003004003005 1003005002005 1002005002006 1002006001006 1001006001007 " />
<route id="route17" color="1,1,0" edges="1006004005004 1005004004004 1004004003004 1003004003005 1003005002005 1002005002006 " />
<route id="route18" color="1,1,0" edges="1004005005005 1005005006005 1006005007005 1007005008005 1008005008006 1008006008007 " />
<route id="route19" color="1,1,0" edges="1006002005002 1005002005003 1005003004003 1004003004004 1004004004005 1004005004006 1004006004007 " />
<route id="route20" color="1,1,0" edges="1007006006006 1006006005006 1005006004006 1004006003006 1003006003005 1003005002005 " />
<route id="route21" color="1,1,0" edges="1002002003002 1003002004002 1004002004003 1004003004004 1004004005004 1005004005005 1005005006005 1006005007005 " />
<route id="route22" color="1,1,0" edges="1003005003004 1003004004004 1004004004003 1004003005003 1005003006003 1006003007003 " />
<route id="route23" color="1,1,0" edges="1002005003005 1003005003004 1003004004004 1004004004003 1004003005003 1005003005002 1005002006002 1006002007002 " />
<route id="route24" color="1,1,0" edges="1005001005002 1005002005003 1005003004003 1004003004004 1004004004005 " />
<route id="route25" color="1,1,0" edges="1008003007003 1007003006003 1006003005003 1005003004003 1004003003003 1003003002003 1002003001003 " />
<route id="route26" color="1,1,0" edges="1008007007007 1007007006007 1006007005007 1005007004007 1004007004008 " />
<route id="route27" color="1,1,0" edges="1007007006007 1006007005007 1005007005006 1005006004006 1004006003006 1003006003005 1003005002005 1002005002004 1002004001004 " />
<route id="route28" color="1,1,0" edges="1008005007005 1007005007006 1007006006006 1006006006007 1006007005007 1005007005008 " />
<route id="route29" color="1,1,0" edges="1005002005003 1005003004003 1004003004004 1004004003004 1003004003005 1003005003006 1003006003007 1003007002007 1002007002008 1002008001008 " />
<route id="route30" color="1,1,0" edges="1005008004008 1004008003008 1003008002008 " />
<route id="route31" color="1,1,0" edges="1002001003001 1003001003002 1003002004002 1004002004003 1004003005003 " />
<route id="route32" color="1,1,0" edges="1004002004003 1004003004004 1004004003004 1003004003005 1003005002005 " />
<route id="route33" color="1,1,0" edges="1004006005006 1005006005007 1005007006007 1006007007007 1007007007008 " />
<route id="route34" color="1,1,0" edges="1001004001003 1001003002003 1002003002002 1002002003002 1003002003001 " />
<route id="route35" color="1,1,0" edges="1007004006004 1006004005004 1005004004004 1004004003004 1003004003005 " />
<route id="route36" color="1,1,0" edges="1003002004002 1004002004003 1004003004004 1004004005004 1005004005005 1005005006005 1006005007005 1007005008005 1008005008006 1008006008007 " />
<route id="route37" color="1,1,0" edges="1005007005006 1005006005005 1005005005004 1005004004004 1004004004003 1004003004002 1004002003002 1003002002002 1002002001002 " />
<route id="route38" color="1,1,0" edges="1005003004003 1004003004004 1004004004005 1004005004006 " />
<route id="route39" color="1,1,0" edges="1007003006003 1006003005003 1005003004003 1004003003003 1003003002003 1002003001003 " />
<route id="route40" color="1,1,0" edges="1006003005003 1005003004003 1004003004004 1004004003004 1003004003005 1003005003006 1003006003007 1003007002007 1002007002008 1002008001008 " />
<route id="route41" color="1,1,0" edges="1002004003004 1003004004004 1004004005004 " />
<route id="route42" color="1,1,0" edges="1002001002002 1002002002003 1002003002004 1002004002005 1002005003005 " />
<route id="route43" color="1,1,0" edges="1003006003005 1003005003004 1003004004004 1004004005004 1005004006004 " />
<route id="route44" color="1,1,0" edges="1008004007004 1007004006004 1006004005004 1005004004004 " />
<route id="route45" color="1,1,0" edges="1002002003002 1003002004002 1004002005002 1005002006002 1006002007002 1007002008002 " />
<route id="route46" color="1,1,0" edges="1007002007003 1007003007004 1007004007005 1007005007006 1007006006006 1006006006007 1006007005007 " />
<route id="route47" color="1,1,0" edges="1005006004006 1004006003006 1003006003005 1003005002005 1002005002004 1002004002003 " />
<route id="route48" color="1,1,0" edges="1008008007008 1007008007007 1007007006007 1006007006006 1006006006005 1006005005005 1005005005004 1005004004004 1004004004003 1004003003003 " />
<route id="route49" color="1,1,0" edges="1002004002005 1002005003005 1003005003006 1003006004006 1004006005006 1005006005007 1005007006007 1006007007007 " />
<route id="route50" color="1,1,0" edges="1004004005004 1005004005005 1005005006005 1006005007005 " />
<route id="route51" color="1,1,0" edges="1008002007002 1007002007003 1007003007004 1007004007005 1007005007006 1007006006006 1006006006007 1006007005007 1005007005008 " />
<route id="route52" color="1,1,0" edges="1008001008002 1008002008003 1008003008004 1008004008005 1008005008006 " />
<route id="route53" color="1,1,0" edges="1008008007008 1007008007007 1007007006007 1006007005007 " />
<route id="route54" color="1,1,0" edges="1001005002005 1002005003005 1003005003004 1003004004004 1004004004003 1004003005003 1005003005002 1005002006002 1006002007002 1007002008002 " />
<route id="route55" color="1,1,0" edges="1001004002004 1002004003004 1003004004004 1004004005004 " />
<route id="route56" color="1,1,0" edges="1003001003002 1003002004002 1004002004003 1004003004004 1004004005004 1005004005005 " />
<route id="route57" color="1,1,0" edges="1003005003006 1003006003007 1003007002007 1002007002008 " />
<route id="route58" color="1,1,0" edges="1005003004003 1004003004004 1004004003004 1003004003005 1003005003006 " />
<route id="route59" color="1,1,0" edges="1004002003002 1003002002002 1002002001002 " />
<route id="route60" color="1,1,0" edges="1002005003005 1003005003006 1003006004006 1004006005006 1005006005007 1005007005008 " />
<route id="route61" color="1,1,0" edges="1008004007004 1007004007005 1007005007006 1007006006006 1006006005006 1005006004006 1004006003006 " />
<route id="route62" color="1,1,0" edges="1001003002003 1002003003003 1003003004003 1004003004004 1004004005004 1005004005005 1005005006005 1006005006006 1006006006007 " />
<route id="route63" color="1,1,0" edges="1007004007003 1007003007002 1007002006002 1006002006001 " />
<route id="route64" color="1,1,0" edges="1004007004006 1004006004005 1004005004004 1004004004003 1004003004002 1004002003002 1003002003001 " />
<route id="route65" color="1,1,0" edges="1001006001007 1001007002007 1002007003007 1003007004007 1004007004008 1004008005008 1005008006008 " />
<route id="route66" color="1,1,0" edges="1003008003007 1003007003006 1003006003005 1003005003004 1003004003003 1003003003002 1003002003001 " />
<route id="route67" color="1,1,0" edges="1008008007008 1007008007007 1007007006007 1006007005007 1005007005006 1005006004006 1004006004005 " />
<route id="route68" color="1,1,0" edges="1001004002004 1002004003004 1003004004004 1004004004003 1004003005003 1005003005002 1005002006002 1006002006001 1006001007001 1007001008001 " />
<route id="route69" color="1,1,0" edges="1006002005002 1005002005003 1005003004003 1004003004004 1004004003004 1003004003005 1003005003006 1003006003007 1003007002007 " />
<route id="route70" color="1,1,0" edges="1001007001006 1001006001005 1001005001004 1001004002004 " />
<route id="route71" color="1,1,0" edges="1002003002004 1002004002005 1002005003005 1003005003006 1003006004006 1004006004007 " />
<route id="route72" color="1,1,0" edges="1007001007002 1007002007003 1007003007004 1007004007005 1007005007006 1007006006006 1006006006007 " />
<route id="route73" color="1,1,0" edges="1001008001007 1001007001006 1001006001005 1001005001004 1001004001003 1001003002003 " />
<route id="route74" color="1,1,0" edges="1005002005003 1005003004003 1004003004004 1004004004005 1004005004006 " />
<route id="route75" color="1,1,0" edges="1008004007004 1007004007005 1007005007006 1007006006006 1006006006007 1006007005007 1005007004007 " />
<route id="route76" color="1,1,0" edges="1005003005004 1005004005005 1005005006005 1006005006006 1006006006007 1006007007007 1007007007008 " />
<route id="route77" color="1,1,0" edges="1002006002005 1002005003005 1003005003004 1003004004004 1004004005004 " />
<route id="route78" color="1,1,0" edges="1003004004004 1004004004003 1004003005003 1005003005002 1005002006002 1006002007002 " />
<route id="route79" color="1,1,0" edges="1008001007001 1007001006001 1006001006002 1006002005002 1005002005003 1005003004003 1004003004004 1004004003004 1003004003005 1003005003006 1003006003007 1003007002007 1002007002008 " />
<route id="route80" color="1,1,0" edges="1007004007005 1007005007006 1007006006006 1006006006007 " />
<route id="route81" color="1,1,0" edges="1003001003002 1003002004002 1004002004003 1004003004004 1004004005004 1005004005005 1005005006005 1006005006006 1006006006007 1006007007007 1007007007008 " />
<route id="route82" color="1,1,0" edges="1006001005001 1005001004001 1004001003001 1003001003002 1003002002002 " />
<route id="route83" color="1,1,0" edges="1006004005004 1005004004004 1004004003004 1003004002004 1002004001004 " />
<route id="route84" color="1,1,0" edges="1008008007008 1007008007007 1007007006007 1006007006006 1006006006005 1006005005005 1005005005004 1005004004004 1004004004003 1004003004002 1004002003002 1003002002002 1002002001002 " />
<route id="route85" color="1,1,0" edges="1003005003006 1003006004006 1004006004007 1004007004008 " />
<route id="route86" color="1,1,0" edges="1005002005003 1005003004003 1004003004004 1004004003004 1003004003005 1003005002005 " />
<route id="route87" color="1,1,0" edges="1001006002006 1002006002005 1002005003005 1003005003004 1003004004004 1004004004003 1004003005003 1005003005002 1005002006002 1006002007002 " />
<route id="route88" color="1,1,0" edges="1008006008005 1008005007005 1007005006005 1006005005005 1005005005004 1005004004004 1004004004003 1004003004002 1004002003002 1003002002002 1002002001002 " />
<route id="route89" color="1,1,0" edges="1004002003002 1003002002002 1002002001002 " />
<route id="route90" color="1,1,0" edges="1001005002005 1002005003005 1003005003006 1003006004006 1004006005006 1005006006006 1006006007006 " />
<route id="route91" color="1,1,0" edges="1008005008006 1008006008007 1008007008008 1008008007008 " />
<route id="route92" color="1,1,0" edges="1003004003005 1003005003006 1003006004006 1004006005006 1005006005007 1005007005008 " />
<route id="route93" color="1,1,0" edges="1001007002007 1002007003007 1003007004007 1004007004008 1004008005008 1005008006008 " />
<route id="route94" color="1,1,0" edges="1007008007007 1007007006007 1006007006006 1006006006005 1006005005005 " />
<route id="route95" color="1,1,0" edges="1002002003002 1003002004002 1004002004003 1004003005003 " />
<route id="route96" color="1,1,0" edges="1006008006007 1006007006006 1006006006005 1006005005005 1005005005004 1005004004004 " />
<route id="route97" color="1,1,0" edges="1004003004004 1004004003004 1003004002004 1002004001004 " />
<route id="route98" color="1,1,0" edges="1001003002003 1002003003003 1003003004003 1004003004004 1004004005004 1005004005005 1005005006005 1006005007005 1007005008005 1008005008006 " />
<route id="route99" color="1,0,1" edges="1003008002008 1002008001008 1001008001007 1001007002007 1002007003007 1003007004007 1004007004006 1004006003006 1003006003005 1003005004005 1004005005005 1005005005006 1005006005007 1005007005008 1005008005007 1005007005006 1005006005005 1005005004005 1004005003005 1003005003006 1003006004006 1004006004007 1004007003007 1003007002007 1002007001007 1001007001008 1001008002008 1002008003008" /> 
<route id="route100" color="1,0,1" edges="1002005002006 1002006002007 1002007003007 1003007003008 1003008002008 1002008001008 1001008001007 1001007001006 1001006001005 1001005001004 1001004001003 1001003001002 1001002002002 1002002002001 1002001001001 1001001002001 1002001002002 1002002001002 1001002001003 1001003001004 1001004001005 1001005001006 1001006001007 1001007001008 1001008002008 1002008003008 1003008003007 1003007002007 1002007002006 1002006002005" /> 
<route id="route101" color="1,0,1" edges="1004004004003 1004003004002 1004002005002 1005002005003 1005003005002 1005002004002 1004002004003 1004003004004" /> 
<route id="route102" color="1,0,1" edges="1005001004001 1004001003001 1003001003002 1003002002002 1002002001002 1001002002002 1002002003002 1003002003001 1003001004001 1004001005001" /> 
<route id="route103" color="1,0,1" edges="1002007002008 1002008003008 1003008003007 1003007003006 1003006002006 1002006003006 1003006003007 1003007003008 1003008002008 1002008002007" /> 
<route id="route104" color="1,0,1" edges="1005007005006 1005006005005 1005005006005 1006005006006 1006006006005 1006005005005 1005005005006 1005006005007" /> 
<route id="route105" color="1,0,1" edges="1003004002004 1002004002003 1002003003003 1003003003002 1003002004002 1004002005002 1005002005003 1005003004003 1004003004004 1004004004003 1004003005003 1005003005002 1005002004002 1004002003002 1003002003003 1003003002003 1002003002004 1002004003004" /> 
<route id="route106" color="1,0,1" edges="1007005008005 1008005008004 1008004008003 1008003007003 1007003008003 1008003008004 1008004008005 1008005007005" /> 
<route id="route107" color="1,0,1" edges="1005007006007 1006007006006 1006006006005 1006005005005 1005005005006 1005006004006 1004006003006 1003006004006 1004006005006 1005006005005 1005005006005 1006005006006 1006006006007 1006007005007" /> 
<route id="route108" color="1,0,1" edges="1002008002007 1002007002006 1002006002005 1002005003005 1003005003004 1003004002004 1002004003004 1003004003005 1003005002005 1002005002006 1002006002007 1002007002008" /> 
<route id="route109" color="1,0,1" edges="1004004005004 1005004005005 1005005006005 1006005007005 1007005007004 1007004008004 1008004007004 1007004007005 1007005006005 1006005005005 1005005005004 1005004004004" /> 
<route id="route110" color="1,0,1" edges="1001007001006 1001006002006 1002006003006 1003006004006 1004006004007 1004007004008 1004008005008 1005008005007 1005007006007 1006007006008 1006008007008 1007008008008 1008008008007 1008007008008 1008008007008 1007008006008 1006008006007 1006007005007 1005007005008 1005008004008 1004008004007 1004007004006 1004006003006 1003006002006 1002006001006 1001006001007" /> 
<route id="route111" color="1,0,1" edges="1008004007004 1007004007003 1007003006003 1006003006004 1006004005004 1005004004004 1004004004003 1004003004004 1004004005004 1005004006004 1006004006003 1006003007003 1007003007004 1007004008004" /> 
<route id="route112" color="1,0,1" edges="1002004001004 1001004001003 1001003001002 1001002001001 1001001002001 1002001002002 1002002002003 1002003003003 1003003003004 1003004004004 1004004005004 1005004006004 1006004006005 1006005007005 1007005006005 1006005006004 1006004005004 1005004004004 1004004003004 1003004003003 1003003002003 1002003002002 1002002002001 1002001001001 1001001001002 1001002001003 1001003001004 1001004002004" /> 
<route id="route113" color="1,0,1" edges="1005006005007 1005007005008 1005008004008 1004008004007 1004007003007 1003007003006 1003006002006 1002006002007 1002007001007 1001007001006 1001006001005 1001005001004 1001004001003 1001003002003 1002003001003 1001003001004 1001004001005 1001005001006 1001006001007 1001007002007 1002007002006 1002006003006 1003006003007 1003007004007 1004007004008 1004008005008 1005008005007 1005007005006" /> 

<route id="route114" color="1,0,1" edges="1005006005007 1005007005008 1005008004008 1004008004007 1004007003007 1003007003006 1003006002006 1002006002007 1002007001007 1001007001006 1001006001005 1001005001004 1001004001003 1001003002003 1002003001003 1001003001004 1001004001005 1001005001006 1001006001007 1001007002007 1002007002006 1002006003006 1003006003007 1003007004007 1004007004008 1004008005008 1005008005007 1005007005006" /> 

 

<vehicle id="1" type="type1" route="route112" depart="64" departLane="best" departSpeed="random" color="0.1,0.7,0.1" />
<vehicle id="2" type="type2" route="route113" depart="66" departLane="best" departSpeed="random" color="0.6,0.9,0.6" />
<vehicle id="3" type="type3" route="route110" depart="68" departLane="best" departSpeed="random" color="0.6,0.9,0.6" />

</routes>
