<routes>

<vType id="type1" accel="0.46" decel="1.768" maxSpeed="75" length="4.4" width="1.5" minGap="0.85" sigma="0.043" />
<vType id="type2" accel="0.4" decel="1.927" maxSpeed="75" length="4.4" width="1.77" minGap="0.85" sigma="0.054" />
<vType id="type3" accel="0.34" decel="1.556" maxSpeed="75" length="4.8" width="1.68" minGap="0.85" sigma="0.109" />
<vType id="type4" accel="0.52" decel="1.662" maxSpeed="75" length="4.2" width="1.62" minGap="0.85" sigma="0.054" />
<vType id="type5" accel="0.49" decel="1.927" maxSpeed="75" length="3.4" width="1.68" minGap="0.85" sigma="0.087" />
<vType id="type6" accel="0.43" decel="1.927" maxSpeed="75" length="3.4" width="1.77" minGap="0.85" sigma="0.054" />
<vType id="type7" accel="0.31" decel="1.821" maxSpeed="75" length="4" width="1.68" minGap="0.85" sigma="0.065" />
<vType id="type8" accel="0.52" decel="1.927" maxSpeed="75" length="3.2" width="1.74" minGap="0.85" sigma="0.065" />
<vType id="type9" accel="0.49" decel="1.715" maxSpeed="75" length="4" width="1.62" minGap="0.85" sigma="0.01" />
<vType id="type10" accel="0.49" decel="1.609" maxSpeed="75" length="3.4" width="1.53" minGap="0.85" sigma="0.098" />
<vType id="type11" accel="0.43" decel="1.927" maxSpeed="75" length="3.8" width="1.59" minGap="0.85" sigma="0.043" />
<vType id="type12" accel="0.58" decel="1.874" maxSpeed="75" length="4.2" width="1.5" minGap="0.85" sigma="0.054" />

<route id="route1" color="1,1,0" edges="1005001004001 1004001004002 1004002004003 1004003004004 1004004004005 1004005004006 1004006004007 " />
<route id="route2" color="1,1,0" edges="1006002006003 1006003006004 1006004006005 1006005006006 1006006006007 1006007005007 1005007005008 1005008005009 1005009004009 1004009004010 1004010004011 " />
<route id="route3" color="1,1,0" edges="1010003009003 1009003008003 1008003007003 1007003006003 1006003005003 1005003004003 1004003003003 1003003003002 1003002002002 " />
<route id="route4" color="1,1,0" edges="1006011006010 1006010006009 1006009005009 1005009004009 1004009004008 1004008004007 1004007004006 1004006004005 1004005004004 " />
<route id="route5" color="1,1,0" edges="1009006008006 1008006008007 1008007008008 1008008007008 1007008006008 1006008005008 1005008004008 " />
<route id="route6" color="1,1,0" edges="1002001002002 1002002003002 1003002003003 1003003004003 1004003005003 1005003005004 1005004006004 1006004006005 1006005006006 1006006006007 1006007006008 1006008006009 1006009006010 " />
<route id="route7" color="1,1,0" edges="1007003007004 1007004007005 1007005007006 1007006007007 1007007008007 1008007008008 1008008008009 " />
<route id="route8" color="1,1,0" edges="1006008006007 1006007006006 1006006005006 1005006004006 1004006004005 1004005003005 " />
<route id="route9" color="1,1,0" edges="1002009003009 1003009003008 1003008004008 1004008005008 1005008005007 1005007006007 1006007006006 1006006007006 1007006007005 1007005008005 1008005009005 " />
<route id="route10" color="1,1,0" edges="1010011010010 1010010010009 1010009009009 1009009009008 1009008009007 1009007008007 1008007007007 1007007006007 1006007006006 1006006005006 1005006004006 1004006003006 1003006002006 1002006002005 1002005001005 " />
<route id="route11" color="1,1,0" edges="1007008008008 1008008008009 1008009009009 1009009010009 1010009010010 1010010010011 1010011011011 " />
<route id="route12" color="1,1,0" edges="1001011001010 1001010002010 1002010003010 1003010003009 1003009003008 1003008004008 1004008005008 1005008005007 1005007006007 1006007006006 1006006007006 1007006007005 1007005008005 1008005009005 1009005009004 1009004009003 1009003009002 1009002010002 1010002010001 " />
<route id="route13" color="1,1,0" edges="1002002002003 1002003002004 1002004003004 1003004003005 1003005004005 1004005004006 1004006004007 1004007004008 1004008005008 " />
<route id="route14" color="1,1,0" edges="1011007010007 1010007009007 1009007008007 1008007007007 1007007007006 1007006007005 1007005006005 1006005006004 " />
<route id="route15" color="1,1,0" edges="1007003007004 1007004007005 1007005007006 1007006006006 1006006006007 1006007005007 1005007005008 " />
<route id="route16" color="1,1,0" edges="1010009009009 1009009009008 1009008009007 1009007008007 1008007007007 1007007006007 1006007006006 1006006005006 1005006004006 1004006003006 " />
<route id="route17" color="1,1,0" edges="1003005004005 1004005005005 1005005006005 1006005006004 1006004007004 1007004007003 1007003008003 1008003009003 1009003009002 1009002010002 1010002011002 " />
<route id="route18" color="1,1,0" edges="1007006006006 1006006006007 1006007005007 1005007004007 1004007003007 1003007002007 " />
<route id="route19" color="1,1,0" edges="1003009002009 1002009002008 1002008002007 1002007002006 1002006002005 1002005001005 1001005001004 1001004001003 " />
<route id="route20" color="1,1,0" edges="1011008010008 1010008009008 1009008009007 1009007008007 1008007007007 1007007007006 1007006007005 1007005006005 1006005006004 1006004006003 " />
<route id="route21" color="1,1,0" edges="1009008009007 1009007010007 1010007010006 1010006010005 1010005010004 1010004010003 " />
<route id="route22" color="1,1,0" edges="1010005009005 1009005008005 1008005007005 1007005007006 1007006006006 1006006006007 1006007005007 1005007005008 1005008005009 " />
<route id="route23" color="1,1,0" edges="1003003003004 1003004003005 1003005004005 1004005004006 1004006004007 1004007004008 1004008004009 1004009004010 " />
<route id="route24" color="1,1,0" edges="1009001008001 1008001008002 1008002007002 1007002006002 1006002006003 1006003006004 1006004006005 1006005005005 1005005004005 " />
<route id="route25" color="1,1,0" edges="1003003004003 1004003005003 1005003005004 1005004006004 1006004007004 1007004008004 1008004009004 1009004009005 " />
<route id="route26" color="1,1,0" edges="1003011003010 1003010003009 1003009002009 1002009002008 1002008002007 1002007002006 1002006002005 1002005001005 1001005001004 " />
<route id="route27" color="1,1,0" edges="1006010007010 1007010008010 1008010009010 1009010010010 1010010010011 1010011011011 " />
<route id="route28" color="1,1,0" edges="1001002001003 1001003001004 1001004001005 1001005002005 1002005002006 1002006003006 1003006003007 " />
<route id="route29" color="1,1,0" edges="1003006004006 1004006005006 1005006006006 1006006007006 1007006007005 1007005008005 1008005009005 1009005010005 1010005011005 " />
<route id="route30" color="1,1,0" edges="1005010005009 1005009005008 1005008006008 1006008007008 1007008008008 1008008008007 1008007009007 1009007010007 1010007010006 1010006011006 " />
<route id="route31" color="1,1,0" edges="1001010002010 1002010003010 1003010003009 1003009003008 1003008004008 1004008005008 1005008005007 1005007006007 1006007006006 1006006007006 1007006007005 1007005007004 " />
<route id="route32" color="1,1,0" edges="1010001010002 1010002009002 1009002009003 1009003009004 1009004009005 1009005008005 1008005007005 1007005007006 1007006006006 1006006006007 1006007005007 1005007004007 1004007003007 " />
<route id="route33" color="1,1,0" edges="1008002008003 1008003008004 1008004008005 1008005008006 1008006008007 1008007009007 1009007009008 1009008010008 " />
<route id="route34" color="1,1,0" edges="1007003007004 1007004007005 1007005007006 1007006006006 1006006006007 1006007005007 " />
<route id="route35" color="1,1,0" edges="1003005004005 1004005004006 1004006004007 1004007004008 1004008004009 1004009005009 " />
<route id="route36" color="1,1,0" edges="1011009011008 1011008011007 1011007011006 1011006011005 1011005011004 1011004011003 1011003011002 1011002011001 " />
<route id="route37" color="1,1,0" edges="1007005007006 1007006007007 1007007008007 1008007009007 1009007009008 1009008010008 1010008011008 " />
<route id="route38" color="1,1,0" edges="1010005009005 1009005008005 1008005007005 1007005007006 1007006006006 1006006006007 1006007005007 1005007005008 1005008004008 1004008003008 1003008003009 1003009003010 1003010002010 " />
<route id="route39" color="1,1,0" edges="1005007006007 1006007007007 1007007008007 1008007009007 1009007009008 1009008009009 1009009010009 1010009010010 1010010010011 1010011011011 " />
<route id="route40" color="1,1,0" edges="1010005009005 1009005008005 1008005007005 1007005007006 1007006006006 1006006005006 " />
<route id="route41" color="1,1,0" edges="1003004003003 1003003003002 1003002004002 1004002004001 1004001005001 1005001006001 " />
<route id="route42" color="1,1,0" edges="1006007006006 1006006005006 1005006004006 1004006004005 1004005003005 1003005003004 1003004002004 1002004001004 " />
<route id="route43" color="1,1,0" edges="1011010011009 1011009010009 1010009009009 1009009009008 1009008009007 1009007008007 1008007007007 1007007007006 " />
<route id="route44" color="1,1,0" edges="1002008003008 1003008004008 1004008004009 1004009005009 1005009006009 1006009006010 1006010007010 1007010008010 " />
<route id="route45" color="1,1,0" edges="1009008009007 1009007008007 1008007007007 1007007006007 1006007005007 1005007004007 " />
<route id="route46" color="1,1,0" edges="1007011007010 1007010006010 1006010006009 1006009005009 1005009004009 1004009004008 1004008003008 1003008003007 1003007002007 " />
<route id="route47" color="1,1,0" edges="1001002002002 1002002003002 1003002003003 1003003004003 1004003005003 1005003005004 1005004006004 1006004006005 1006005007005 1007005007006 1007006007007 1007007008007 1008007008008 1008008008009 1008009008010 " />
<route id="route48" color="1,1,0" edges="1010008009008 1009008009007 1009007008007 1008007007007 1007007007006 1007006007005 1007005007004 1007004007003 1007003007002 1007002007001 " />
<route id="route49" color="1,1,0" edges="1005009005008 1005008005007 1005007006007 1006007006006 1006006007006 1007006007005 1007005008005 1008005009005 1009005010005 1010005010004 1010004011004 " />
<route id="route50" color="1,1,0" edges="1008002008003 1008003007003 1007003007004 1007004007005 1007005007006 1007006006006 1006006006007 1006007005007 1005007005008 1005008004008 1004008003008 1003008003009 1003009002009 " />
<route id="route51" color="1,1,0" edges="1011010011009 1011009010009 1010009009009 1009009009008 1009008009007 1009007008007 1008007007007 1007007006007 1006007006006 1006006005006 1005006004006 1004006003006 " />
<route id="route52" color="1,1,0" edges="1006004006005 1006005007005 1007005007006 1007006007007 1007007008007 1008007009007 1009007009008 1009008009009 1009009010009 1010009011009 1011009011010 " />
<route id="route53" color="1,1,0" edges="1009010009009 1009009010009 1010009010008 1010008011008 1011008011007 1011007011006 1011006011005 " />
<route id="route54" color="1,1,0" edges="1006005006006 1006006006007 1006007005007 1005007005008 1005008004008 1004008003008 1003008003009 1003009002009 " />
<route id="route55" color="1,1,0" edges="1006009007009 1007009007008 1007008008008 1008008008007 1008007008006 1008006008005 1008005009005 1009005009004 1009004009003 1009003009002 1009002010002 1010002010001 " />
<route id="route56" color="1,1,0" edges="1010006010007 1010007009007 1009007008007 1008007008008 1008008008009 1008009008010 1008010007010 " />
<route id="route57" color="1,1,0" edges="1007001007002 1007002007003 1007003007004 1007004007005 1007005007006 1007006007007 1007007008007 1008007009007 1009007009008 1009008009009 " />
<route id="route58" color="1,1,0" edges="1010005009005 1009005008005 1008005007005 1007005007006 1007006006006 1006006006007 1006007005007 1005007005008 1005008004008 " />
<route id="route59" color="1,1,0" edges="1002005002006 1002006003006 1003006004006 1004006005006 1005006006006 1006006006007 1006007007007 1007007008007 1008007009007 1009007010007 " />
<route id="route60" color="1,1,0" edges="1003002003003 1003003004003 1004003005003 1005003005004 1005004006004 1006004006005 1006005006006 " />
<route id="route61" color="1,1,0" edges="1005011004011 1004011004010 1004010003010 1003010003009 1003009002009 1002009002008 " />
<route id="route62" color="1,1,0" edges="1005007006007 1006007006006 1006006007006 1007006007005 1007005008005 1008005009005 1009005009004 1009004009003 1009003009002 1009002010002 1010002011002 " />
<route id="route63" color="1,1,0" edges="1002003002004 1002004003004 1003004003005 1003005004005 1004005004006 1004006004007 1004007004008 1004008004009 1004009005009 1005009006009 " />
<route id="route64" color="1,1,0" edges="1006009007009 1007009007008 1007008008008 1008008008007 1008007009007 1009007010007 " />
<route id="route65" color="1,0,1" edges="1001008002008 1002008002007 1002007003007 1003007003008 1003008003009 1003009003010 1003010003011 1003011002011 1002011002010 1002010001010 1001010001009 1001009002009 1002009001009 1001009001010 1001010002010 1002010002011 1002011003011 1003011003010 1003010003009 1003009003008 1003008003007 1003007002007 1002007002008 1002008001008" /> 
<route id="route66" color="1,0,1" edges="1005005005006 1005006004006 1004006003006 1003006003005 1003005004005 1004005004004 1004004003004 1003004003003 1003003003004 1003004004004 1004004004005 1004005003005 1003005003006 1003006004006 1004006005006 1005006005005" /> 
<route id="route67" color="1,0,1" edges="1003003004003 1004003005003 1005003005004 1005004005005 1005005006005 1006005006006 1006006006007 1006007007007 1007007007006 1007006007005 1007005007004 1007004007005 1007005007006 1007006007007 1007007006007 1006007006006 1006006006005 1006005005005 1005005005004 1005004005003 1005003004003 1004003003003" /> 
<route id="route68" color="1,0,1" edges="1005010005009 1005009005008 1005008006008 1006008006009 1006009006010 1006010006011 1006011007011 1007011008011 1008011009011 1009011009010 1009010010010 1010010010009 1010009010008 1010008011008 1011008011009" /> 
<route id="route69" color="1,0,1" edges="1001009002009 1002009003009 1003009004009 1004009004010 1004010004011 1004011003011 1003011003010 1003010002010 1002010002011 1002011001011 1001011001010" /> 
<route id="route70" color="1,0,1" edges="1006010007010 1007010007009 1007009007008 1007008006008 1006008005008 1005008005007 1005007006007 1006007006006 1006006006005 1006005006004 1006004007004 1007004007003" /> 
<route id="route71" color="1,0,1" edges="1007011008011 1008011008010 1008010008009 1008009009009" /> 
<route id="route72" color="1,0,1" edges="1006005007005 1007005008005 1008005009005 1009005009006 1009006010006 1010006011006" /> 
<route id="route73" color="1,0,1" edges="1008011009011 1009011010011 1010011011011 1011011011010 1011010010010 1010010009010 1009010008010 1008010007010 1007010007009 1007009006009 1006009006008 1006008007008 1007008007007" /> 
<route id="route74" color="1,0,1" edges="1011007011008 1011008011009 1011009011010 1011010010010 1010010009010" /> 
<route id="route75" color="1,0,1" edges="1003002003001 1003001002001 1002001001001 1001001001002 1001002001003 1001003002003 1002003003003 1003003003004 1003004003005 1003005002005 1002005002006 1002006003006" /> 
<route id="route76" color="1,0,1" edges="1003006002006 1002006001006 1001006001007 1001007001008 1001008002008 1002008002009" /> 
<route id="route77" color="1,0,1" edges="1009009009010 1009010010010 1010010011010 1011010011009" /> 
<route id="route78" color="1,0,1" edges="1003005003004 1003004002004 1002004002005 1002005001005 1001005001004 1001004001003 1001003001002 1001002001001 1001001002001 1002001003001 1003001004001 1004001004002 1004002003002" /> 
<route id="route79" color="1,0,1" edges="1006011006010 1006010007010 1007010008010 1008010008009 1008009009009 1009009010009 1010009010008 1010008010007 1010007009007 1009007008007 1008007008006" /> 
<route id="route80" color="1,0,1" edges="1011001011002 1011002011003 1011003011004 1011004011005 1011005010005 1010005010004 1010004009004 1009004008004 1008004008003 1008003009003 1009003010003 1010003010002 1010002010001 1010001009001 1009001008001" /> 


<vehicle id="1" type="type4" route="route1" depart="1.66667" departLane="best" departSpeed="random" color="0.6,0.6,0" />
<vehicle id="2" type="type5" route="route2" depart="4" departLane="best" departSpeed="random" color="0.2,0.3,0.7" />
<vehicle id="3" type="type6" route="route3" depart="5.33333" departLane="best" departSpeed="random" color="0.9,0.1,0.3" />
<vehicle id="4" type="type9" route="route4" depart="6.33333" departLane="best" departSpeed="random" color="0.4,0.7,0.8" />
<vehicle id="5" type="type4" route="route5" depart="9.33333" departLane="best" departSpeed="random" color="0.5,0,0" />
<vehicle id="6" type="type5" route="route6" depart="11" departLane="best" departSpeed="random" color="0.3,0.7,0.9" />
<vehicle id="7" type="type1" route="route7" depart="12.6667" departLane="best" departSpeed="random" color="0.3,0.5,0.9" />
<vehicle id="8" type="type4" route="route8" depart="14.6667" departLane="best" departSpeed="random" color="0.1,0.7,0" />
<vehicle id="9" type="type1" route="route9" depart="15.6667" departLane="best" departSpeed="random" color="0.6,0,0" />
<vehicle id="10" type="type9" route="route10" depart="17.6667" departLane="best" departSpeed="random" color="0,0.6,0.6" />
<vehicle id="11" type="type1" route="route11" depart="19.3333" departLane="best" departSpeed="random" color="0.7,0.7,0" />
<vehicle id="12" type="type9" route="route12" depart="20" departLane="best" departSpeed="random" color="0.6,0.3,0.5" />
<vehicle id="13" type="type6" route="route13" depart="20.6667" departLane="best" departSpeed="random" color="0.7,0,0.9" />
<vehicle id="14" type="type3" route="route14" depart="22" departLane="best" departSpeed="random" color="0.8,0.9,0.3" />
<vehicle id="15" type="type11" route="route15" depart="24.6667" departLane="best" departSpeed="random" color="0.2,0.8,0.2" />
<vehicle id="16" type="type3" route="route16" depart="26" departLane="best" departSpeed="random" color="0,0.2,0.9" />
<vehicle id="17" type="type1" route="route17" depart="27.3333" departLane="best" departSpeed="random" color="0.8,0.6,0" />
<vehicle id="18" type="type9" route="route18" depart="29.6667" departLane="best" departSpeed="random" color="0.9,0.6,0.1" />
<vehicle id="19" type="type3" route="route19" depart="32.6667" departLane="best" departSpeed="random" color="0.5,0.4,0.4" />
<vehicle id="20" type="type11" route="route20" depart="32.6667" departLane="best" departSpeed="random" color="0.2,0.4,0.4" />
<vehicle id="21" type="type10" route="route21" depart="34.6667" departLane="best" departSpeed="random" color="0.6,0.9,0.3" />
<vehicle id="22" type="type1" route="route22" depart="37.3333" departLane="best" departSpeed="random" color="0.3,0.8,0.5" />
<vehicle id="23" type="type7" route="route23" depart="39" departLane="best" departSpeed="random" color="0.8,0.3,0.5" />
<vehicle id="24" type="type9" route="route24" depart="40.6667" departLane="best" departSpeed="random" color="0.3,0.1,0" />
<vehicle id="25" type="type7" route="route25" depart="42.6667" departLane="best" departSpeed="random" color="0.3,0.4,0.4" />
<vehicle id="26" type="type4" route="route26" depart="44" departLane="best" departSpeed="random" color="0.8,0.1,0.7" />
<vehicle id="27" type="type1" route="route27" depart="46" departLane="best" departSpeed="random" color="0.1,0,0.8" />
<vehicle id="28" type="type11" route="route28" depart="47" departLane="best" departSpeed="random" color="0.2,0.2,0.9" />
<vehicle id="29" type="type6" route="route29" depart="49" departLane="best" departSpeed="random" color="0.8,0.7,0.1" />
<vehicle id="30" type="type8" route="route30" depart="50.3333" departLane="best" departSpeed="random" color="0.5,0,0.1" />
<vehicle id="31" type="type8" route="route31" depart="51.3333" departLane="best" departSpeed="random" color="0.1,0.8,0.4" />
<vehicle id="32" type="type6" route="route32" depart="52.3333" departLane="best" departSpeed="random" color="0.7,0.7,0.1" />
<vehicle id="33" type="type1" route="route33" depart="53" departLane="best" departSpeed="random" color="0,0.7,0.4" />
<vehicle id="34" type="type6" route="route34" depart="53.6667" departLane="best" departSpeed="random" color="0.3,0.3,0.6" />
<vehicle id="35" type="type9" route="route35" depart="56.6667" departLane="best" departSpeed="random" color="0.4,0.4,0.8" />
<vehicle id="36" type="type9" route="route36" depart="58.3333" departLane="best" departSpeed="random" color="0.7,0.3,0.3" />
<vehicle id="37" type="type1" route="route37" depart="60" departLane="best" departSpeed="random" color="0.1,0.1,0.8" />
<vehicle id="38" type="type9" route="route38" depart="61.6667" departLane="best" departSpeed="random" color="0.8,0.5,0.6" />
<vehicle id="39" type="type1" route="route39" depart="62.6667" departLane="best" departSpeed="random" color="0,0.2,0.8" />
<vehicle id="40" type="type1" route="route40" depart="64" departLane="best" departSpeed="random" color="0.4,0.9,0.6" />
<vehicle id="41" type="type5" route="route41" depart="66" departLane="best" departSpeed="random" color="0.7,0.7,0.9" />
<vehicle id="42" type="type2" route="route42" depart="67" departLane="best" departSpeed="random" color="0.2,0.4,0.8" />
<vehicle id="43" type="type8" route="route43" depart="68.3333" departLane="best" departSpeed="random" color="0.8,0.9,0.6" />
<vehicle id="44" type="type9" route="route44" depart="70.6667" departLane="best" departSpeed="random" color="0.7,0.9,0.4" />
<vehicle id="45" type="type4" route="route45" depart="72.3333" departLane="best" departSpeed="random" color="0.5,0.3,0.3" />
<vehicle id="46" type="type6" route="route46" depart="73.3333" departLane="best" departSpeed="random" color="0.7,0,0.9" />
<vehicle id="47" type="type4" route="route47" depart="74.3333" departLane="best" departSpeed="random" color="0.4,0.2,0.1" />
<vehicle id="48" type="type11" route="route48" depart="76.6667" departLane="best" departSpeed="random" color="0.8,0.8,0.4" />
<vehicle id="49" type="type5" route="route49" depart="78.3333" departLane="best" departSpeed="random" color="0.9,0.8,0.5" />
<vehicle id="50" type="type10" route="route50" depart="80" departLane="best" departSpeed="random" color="0.4,0.4,0.8" />
<vehicle id="51" type="type7" route="route51" depart="81.3333" departLane="best" departSpeed="random" color="0.9,0.3,0.4" />
<vehicle id="52" type="type1" route="route52" depart="82.3333" departLane="best" departSpeed="random" color="0.4,0.9,0" />
<vehicle id="53" type="type12" route="route53" depart="82.3333" departLane="best" departSpeed="random" color="0.5,0.9,0.7" />
<vehicle id="54" type="type3" route="route54" depart="83.6667" departLane="best" departSpeed="random" color="0.7,0.9,0.4" />
<vehicle id="55" type="type12" route="route55" depart="84.6667" departLane="best" departSpeed="random" color="0.2,0.4,0.8" />
<vehicle id="56" type="type6" route="route56" depart="86.6667" departLane="best" departSpeed="random" color="0.7,0.1,0.8" />
<vehicle id="57" type="type4" route="route57" depart="88.6667" departLane="best" departSpeed="random" color="0.9,0.6,0.4" />
<vehicle id="58" type="type7" route="route58" depart="90" departLane="best" departSpeed="random" color="0.6,0,0" />
<vehicle id="59" type="type2" route="route59" depart="91.3333" departLane="best" departSpeed="random" color="0.5,0.4,0.2" />
<vehicle id="60" type="type5" route="route60" depart="92.6667" departLane="best" departSpeed="random" color="0,0.3,0.3" />
<vehicle id="61" type="type11" route="route61" depart="94.6667" departLane="best" departSpeed="random" color="0.3,0.8,0.2" />
<vehicle id="62" type="type4" route="route62" depart="95.3333" departLane="best" departSpeed="random" color="0.6,0,0.8" />
<vehicle id="63" type="type1" route="route63" depart="95.3333" departLane="best" departSpeed="random" color="0.9,0.5,0.3" />
<vehicle id="64" type="type2" route="route64" depart="96.3333" departLane="best" departSpeed="random" color="0.3,0.1,0.9" />
<vehicle id="65" type="type2" route="route11" depart="97" departLane="best" departSpeed="random" color="0,0.6,0.9" />
<vehicle id="66" type="type2" route="route10" depart="98.3333" departLane="best" departSpeed="random" color="0.8,0.6,0.7" />
<vehicle id="67" type="type4" route="route28" depart="99.3333" departLane="best" departSpeed="random" color="0.9,0.4,0.2" />
<vehicle id="68" type="type10" route="route53" depart="101.333" departLane="best" departSpeed="random" color="0.1,0.3,0.9" />
<vehicle id="69" type="type12" route="route23" depart="103" departLane="best" departSpeed="random" color="0.8,0.2,0.7" />
<vehicle id="70" type="type3" route="route35" depart="104.333" departLane="best" departSpeed="random" color="0.4,0.8,0.6" />
<vehicle id="71" type="type6" route="route64" depart="104.333" departLane="best" departSpeed="random" color="0.6,0.5,0.6" />
<vehicle id="72" type="type2" route="route48" depart="105" departLane="best" departSpeed="random" color="0.8,0.2,0.2" />
<vehicle id="73" type="type5" route="route19" depart="105.667" departLane="best" departSpeed="random" color="0.2,0.1,0.2" />
<vehicle id="74" type="type2" route="route63" depart="108.333" departLane="best" departSpeed="random" color="0.9,0.8,0.2" />
<vehicle id="75" type="type8" route="route57" depart="109.667" departLane="best" departSpeed="random" color="0.9,0.3,0.2" />
<vehicle id="76" type="type4" route="route54" depart="109.667" departLane="best" departSpeed="random" color="0.5,0.5,0.2" />
<vehicle id="77" type="type2" route="route56" depart="111.333" departLane="best" departSpeed="random" color="0.8,0.9,0.9" />
<vehicle id="78" type="type1" route="route61" depart="112" departLane="best" departSpeed="random" color="0.1,0.4,0.1" />
<vehicle id="79" type="type2" route="route22" depart="114.333" departLane="best" departSpeed="random" color="0.3,0.9,0" />
<vehicle id="80" type="type1" route="route49" depart="115" departLane="best" departSpeed="random" color="0,0.7,0.1" />
<vehicle id="81" type="type1" route="route49" depart="115.667" departLane="best" departSpeed="random" color="0.1,0.1,0.9" />
<vehicle id="82" type="type2" route="route64" depart="117.667" departLane="best" departSpeed="random" color="0.2,0.3,0.8" />
<vehicle id="83" type="type10" route="route51" depart="120" departLane="best" departSpeed="random" color="0.2,0.6,0.6" />
<vehicle id="84" type="type4" route="route56" depart="120.667" departLane="best" departSpeed="random" color="0.7,0.5,0.4" />
<vehicle id="85" type="type2" route="route25" depart="123.667" departLane="best" departSpeed="random" color="0.5,0.5,0.1" />
<vehicle id="86" type="type8" route="route19" depart="125.333" departLane="best" departSpeed="random" color="0.1,0.2,0.9" />
<vehicle id="87" type="type1" route="route15" depart="126.667" departLane="best" departSpeed="random" color="0.9,0.2,0.7" />
<vehicle id="88" type="type7" route="route13" depart="128.333" departLane="best" departSpeed="random" color="0.2,0.1,0.3" />
<vehicle id="89" type="type11" route="route47" depart="131.333" departLane="best" departSpeed="random" color="0.5,0.4,0.9" />
<vehicle id="90" type="type3" route="route53" depart="133.667" departLane="best" departSpeed="random" color="0.4,0.6,0.1" />
<vehicle id="91" type="type1" route="route15" depart="135" departLane="best" departSpeed="random" color="0.6,0.8,0.4" />
<vehicle id="92" type="type12" route="route53" depart="137" departLane="best" departSpeed="random" color="0.3,0,0" />
<vehicle id="93" type="type5" route="route46" depart="139.333" departLane="best" departSpeed="random" color="0.7,0.6,0.9" />
<vehicle id="94" type="type3" route="route25" depart="142" departLane="best" departSpeed="random" color="0.4,0.1,0" />
<vehicle id="95" type="type5" route="route34" depart="145" departLane="best" departSpeed="random" color="0,0.8,0.9" />
<vehicle id="96" type="type11" route="route34" depart="148" departLane="best" departSpeed="random" color="0.6,0.4,0.5" />
<vehicle id="97" type="type6" route="route35" depart="149.333" departLane="best" departSpeed="random" color="0.9,0.7,0.8" />
<vehicle id="98" type="type6" route="route29" depart="151.333" departLane="best" departSpeed="random" color="0.8,0.8,0.8" />
<vehicle id="99" type="type4" route="route47" depart="152.333" departLane="best" departSpeed="random" color="0.5,0.5,0.5" />
<vehicle id="100" type="type8" route="route32" depart="154.667" departLane="best" departSpeed="random" color="0,0.5,0.7" />
<vehicle id="101" type="type1" route="route20" depart="156.333" departLane="best" departSpeed="random" color="0.1,0.6,0.9" />
<vehicle id="102" type="type3" route="route39" depart="158.333" departLane="best" departSpeed="random" color="0.4,0.8,0.1" />
<vehicle id="103" type="type7" route="route2" depart="159.667" departLane="best" departSpeed="random" color="0.6,0.7,0.9" />
<vehicle id="104" type="type1" route="route29" depart="161.333" departLane="best" departSpeed="random" color="0,0.4,0.7" />
<vehicle id="105" type="type11" route="route39" depart="163" departLane="best" departSpeed="random" color="0.7,0.4,0.5" />
<vehicle id="106" type="type3" route="route48" depart="164.333" departLane="best" departSpeed="random" color="0.1,0.9,0.3" />
<vehicle id="107" type="type1" route="route45" depart="166" departLane="best" departSpeed="random" color="0.4,0.4,0.2" />
<vehicle id="108" type="type7" route="route42" depart="168" departLane="best" departSpeed="random" color="0.9,0.9,0.2" />
<vehicle id="109" type="type3" route="route28" depart="170.333" departLane="best" departSpeed="random" color="0,0.8,0.4" />
<vehicle id="110" type="type8" route="route5" depart="173" departLane="best" departSpeed="random" color="0.9,0.5,0.2" />
<vehicle id="111" type="type10" route="route10" depart="175.333" departLane="best" departSpeed="random" color="0.4,0.4,0.2" />
<vehicle id="112" type="type4" route="route35" depart="175.333" departLane="best" departSpeed="random" color="0.9,0.3,0.7" />
<vehicle id="113" type="type10" route="route31" depart="177" departLane="best" departSpeed="random" color="0.6,0,0.7" />
<vehicle id="114" type="type1" route="route26" depart="177.667" departLane="best" departSpeed="random" color="0,0.1,0.2" />